---- qbsp / ericw-tools v0.18.1 ----
Input file: dungeon.map
Output file: dungeon.bsp

---- LoadMapFile ----
         1524 faces
          254 brushes
           26 entities
            2 unique texnames
          453 texinfo

Opened WAD: D:/QuakeDev/wads/prototype_1_2.wad
Processing hull 0...
---- Brush_LoadEntity ----
          254 brushes
          262 planes
---- CSGFaces ----
         1524 brushfaces
         2221 csgfaces
         1936 mergedfaces
---- SolidBSP ----
         2386 split nodes
         1038 solid leafs
         1349 empty leafs
            0 water leafs
            0 detail leafs
            0 detail illusionary leafs
            0 detail fence leafs
            0 illusionary visblocker leafs
         5886 leaffaces
         5540 nodefaces
---- Portalize ----
         1349 vis leafs
         1349 vis clusters
         3742 vis portals
---- FillOutside ----
*** WARNING 10: Reached occupant at (-1304 1384 -312), no filling performed.
Leak file written to dungeon.pts
---- MakeFaceEdges ----
---- GrowRegions ----
Processing hull 1...
Processing hull 2...
---- WriteBSPFile ----
Wrote dungeon.bsp
          399 planes             7980
         6684 vertexes          80208
         2386 nodes             57264
          390 texinfo           15600
         5540 faces            110800
         1575 clipnodes         12600
         1350 leafs             37800
         5886 marksurfaces      11772
        22160 surfedges         88640
        14227 edges             56908
            2 textures          43612
              lightdata             0
              visdata               0
              entdata            1804

0.530 seconds elapsed
Peak memory usage: 24888908 (23.7M)
