---- qbsp / ericw-tools v0.18.1 ----
Input file: dungeon.map
Output file: dungeon.bsp

---- LoadMapFile ----
         1860 faces
          310 brushes
          277 entities
            5 unique texnames
          577 texinfo

Opened WAD: D:/QuakeDev/wads/prototype_1_2.wad
Opened WAD: D:/QuakeDev/wads/id1.wad
Processing hull 0...
---- Brush_LoadEntity ----
          310 brushes
          292 planes
---- CSGFaces ----
         1860 brushfaces
         2626 csgfaces
         2341 mergedfaces
---- SolidBSP ----
         3109 split nodes
         1348 solid leafs
         1762 empty leafs
            0 water leafs
            0 detail leafs
            0 detail illusionary leafs
            0 detail fence leafs
            0 illusionary visblocker leafs
         6956 leaffaces
         6461 nodefaces
---- Portalize ----
         1762 vis leafs
         1762 vis clusters
         4950 vis portals
---- FillOutside ----
*** WARNING 10: Reached occupant at (-1304 1384 -312), no filling performed.
Leak file written to dungeon.pts
---- MakeFaceEdges ----
---- GrowRegions ----
Processing hull 1...
Processing hull 2...
---- WriteBSPFile ----
Wrote dungeon.bsp
          422 planes             8440
         7812 vertexes          93744
         3109 nodes             74616
          500 texinfo           20000
         6461 faces            129220
         1957 clipnodes         15656
         1763 leafs             49364
         6956 marksurfaces      13912
        25844 surfedges        103376
        16583 edges             66332
            5 textures          60064
              lightdata             0
              visdata               0
              entdata           18471

0.359 seconds elapsed
Peak memory usage: 28241368 (26.9M)
