---- qbsp / ericw-tools v0.18.1 ----
Input file: Zombiemap.map
Output file: Zombiemap.bsp

---- LoadMapFile ----
*** WARNING 06: No info_player_deathmatch entities in level
           72 faces
           12 brushes
            9 entities
            3 unique texnames
           22 texinfo

Opened WAD: D:/QuakeDev/wads/id1.wad
Processing hull 0...
---- Brush_LoadEntity ----
           12 brushes
           17 planes
---- CSGFaces ----
           72 brushfaces
           51 csgfaces
           41 mergedfaces
---- SolidBSP ----
           52 split nodes
           14 solid leafs
           39 empty leafs
            0 water leafs
            0 detail leafs
            0 detail illusionary leafs
            0 detail fence leafs
            0 illusionary visblocker leafs
          121 leaffaces
          121 nodefaces
---- Portalize ----
           39 vis leafs
           39 vis clusters
           79 vis portals
---- FillOutside ----
*** WARNING 10: Reached occupant at (-16 0 40), no filling performed.
Leak file written to Zombiemap.pts
---- MakeFaceEdges ----
---- GrowRegions ----
Processing hull 1...
*** WARNING 19: No entities in empty space -- no filling performed (hull 1)
Processing hull 2...
*** WARNING 19: No entities in empty space -- no filling performed (hull 2)
---- WriteBSPFile ----
Wrote Zombiemap.bsp
           59 planes             1180
          147 vertexes           1764
           52 nodes              1248
           17 texinfo             680
          121 faces              2420
          118 clipnodes           944
           40 leafs              1120
          121 marksurfaces        242
          484 surfedges          1936
          294 edges              1176
            3 textures          16456
              lightdata             0
              visdata               0
              entdata             572

0.319 seconds elapsed
Peak memory usage: 781094 (0.7M)
